REMARK  4 active torsions:
REMARK  status: ('A' for Active; 'I' for Inactive)
REMARK    1  A    between atoms: S_1  and  C_11 
REMARK    2  A    between atoms: N_5  and  C_8 
REMARK    3  A    between atoms: C_6  and  C_7 
REMARK    4  A    between atoms: C_7  and  C_8 
ROOT
HETATM    1  S   UNN     0       4.019  -0.001   0.414  0.00  0.00     0.333 S 
HETATM    2  F   UNN     0       4.098   0.004  -1.333  0.00  0.00    -0.100 F 
HETATM    3  O   UNN     0       4.506   1.281   0.907  0.00  0.00    -0.189 OA
HETATM    4  O   UNN     0       4.508  -1.285   0.900  0.00  0.00    -0.189 OA
ENDROOT
BRANCH   1   5
HETATM    5  C   UNN     0       2.247  -0.001   0.098  0.00  0.00     0.090 A 
HETATM    6  C   UNN     0       1.571   1.155  -0.016  0.00  0.00     0.026 A 
HETATM    7  C   UNN     0       0.249   1.153  -0.247  0.00  0.00     0.009 A 
HETATM    8  C   UNN     0      -0.431  -0.001  -0.369  0.00  0.00    -0.056 A 
HETATM    9  C   UNN     0       0.250  -1.154  -0.252  0.00  0.00     0.009 A 
HETATM   10  C   UNN     0       1.572  -1.157  -0.022  0.00  0.00     0.026 A 
BRANCH   8  11
HETATM   11  C   UNN     0      -1.922  -0.001  -0.626  0.00  0.00     0.068 C 
BRANCH  11  12
HETATM   12  C   UNN     0      -2.704  -0.003   0.695  0.00  0.00     0.271 C 
BRANCH  12  13
HETATM   13  N   UNN     0      -4.154  -0.003   0.437  0.00  0.00     0.078 N 
HETATM   14  H   UNN     0      -4.417  -0.824  -0.135  0.00  0.00     0.312 HD
HETATM   15  H   UNN     0      -4.418   0.819  -0.133  0.00  0.00     0.312 HD
ENDBRANCH  12  13
ENDBRANCH  11  12
ENDBRANCH   8  11
ENDBRANCH   1   5
TORSDOF 4
